Circuit: * D:\AUV Capstone\simple-wireless-power\simulation\AC Analysis.asc

C2: Increased Cpar to 3.8e-013
C1: Increased Cpar to 3.8e-013

Date: Sun May 23 15:32:36 2021
Total elapsed time: 0.028 seconds.

tnom = 27
temp = 27
method = trap
totiter = 0
traniter = 0
tranpoints = 0
accept = 0
rejected = 0
matrix size = 7
fillins = 1
solver = Normal

