Circuit: * D:\AUV Capstone\AUV-Senior-Design\Mark\WPT Sims\Full Bridge Simple.asc

C4: Increased Cpar to 1.5e-009
C3: Increased Cpar to 2.5e-009
Direct Newton iteration for .op point succeeded.

Date: Sat Oct 31 00:01:08 2020
Total elapsed time: 9.027 seconds.

tnom = 27
temp = 27
method = modified trap
totiter = 3000847
traniter = 3000843
tranpoints = 1470991
accept = 1290536
rejected = 180455
matrix size = 13
fillins = 8
solver = Normal
Matrix Compiler1: 1.15 KB object code size  0.2/0.1/[0.1]
Matrix Compiler2: 1.08 KB object code size  0.1/0.1/[0.1]

