Circuit: * D:\AUV Capstone\AUV-Senior-Design\Mark\WPT Sims\TX RX Complex.asc

C4: Increased Cpar to 1e-009
C3: Increased Cpar to 1.32e-009
Direct Newton iteration failed to find .op point.  (Use ".option noopiter" to skip.)
Starting Gmin stepping
Gmin = 10
Gmin = 1.07374
vernier = 0.5
vernier = 0.666667
Gmin = 0.375229
vernier = 0.888888
vernier = 1
Gmin = 0.0567082
Gmin = 0.006089
vernier = 0.5
Gmin = 0.00102156
vernier = 0.25
vernier = 0.125
vernier = 0.0625
vernier = 0.03125
Gmin = 0.00099805
vernier = 0.015625
vernier = 0.0078125
vernier = 0.00390625
vernier = 0.00195313
Gmin = 0.00100047
vernier = 0.000976563
vernier = 0.000488281
Gmin = 0
Gmin stepping failed

Starting source stepping with srcstepmethod=0
Source Step = 3.0303%
Source Step = 33.3333%
Source Step = 63.6364%
Source Step = 93.9394%
Source stepping succeeded in finding the operating point.


Date: Fri Apr 09 16:45:47 2021
Total elapsed time: 104.629 seconds.

tnom = 27
temp = 27
method = modified trap
totiter = 2809131
traniter = 2807068
tranpoints = 1257267
accept = 1192231
rejected = 65036
matrix size = 393
fillins = 483
solver = Normal
Thread vector: 25.7/11.6[8] 6.1/3.2[8] 13.2/4.7[8] 0.9/2.0[1]  2592/500
Matrix Compiler1: 42.17 KB object code size  10.2/5.5/[2.1]
Matrix Compiler2: 35.33 KB object code size  6.4/7.4/[1.9]

